140

C  6.964286  6.892857  7.428571
H  8.034286  6.892857  7.428571
H  6.607626  7.638287  8.108291
H  6.607616  5.931487  7.734271
H  6.607616  7.108797  6.443151
C  9.964286  6.892857  7.428571
H 11.034286  6.892857  7.428571
H  9.607626  7.638287  8.108291
H  9.607616  5.931487  7.734271
H  9.607616  7.108797  6.443151
C 12.964286  6.892857  7.428571
H 14.034286  6.892857  7.428571
H 12.607626  7.638287  8.108291
H 12.607616  5.931487  7.734271
H 12.607616  7.108797  6.443151
C  6.964286  9.892857  7.428571
H  8.034286  9.892857  7.428571
H  6.607626 10.638287  8.108291
H  6.607616  8.931487  7.734271
H  6.607616 10.108797  6.443151
C  9.964286  9.892857  7.428571
H 11.034286  9.892857  7.428571
H  9.607626 10.638287  8.108291
H  9.607616  8.931487  7.734271
H  9.607616 10.108797  6.443151
C 12.964286  9.892857  7.428571
H 14.034286  9.892857  7.428571
H 12.607626 10.638287  8.108291
H 12.607616  8.931487  7.734271
H 12.607616 10.108797  6.443151
C  6.964286 12.892857  7.428571
H  8.034286 12.892857  7.428571
H  6.607626 13.638287  8.108291
H  6.607616 11.931487  7.734271
H  6.607616 13.108797  6.443151
C  9.964286 12.892857  7.428571
H 11.034286 12.892857  7.428571
H  9.607626 13.638287  8.108291
H  9.607616 11.931487  7.734271
H  9.607616 13.108797  6.443151
C 12.964286 12.892857  7.428571
H 14.034286 12.892857  7.428571
H 12.607626 13.638287  8.108291
H 12.607616 11.931487  7.734271
H 12.607616 13.108797  6.443151
C  7.964286  7.892857  9.428571
H  9.034286  7.892857  9.428571
H  7.607626  8.638287 10.108291
H  7.607616  6.931487  9.734271
H  7.607616  8.108797  8.443151
C 10.964286  7.892857  9.428571
H 12.034286  7.892857  9.428571
H 10.607626  8.638287 10.108291
H 10.607616  6.931487  9.734271
H 10.607616  8.108797  8.443151
C  7.964286 10.892857  9.428571
H  9.034286 10.892857  9.428571
H  7.607626 11.638287 10.108291
H  7.607616  9.931487  9.734271
H  7.607616 11.108797  8.443151
C 10.964286 10.892857  9.428571
H 12.034286 10.892857  9.428571
H 10.607626 11.638287 10.108291
H 10.607616  9.931487  9.734271
H 10.607616 11.108797  8.443151
C 12.964286  6.892857 10.428571
H 14.034286  6.892857 10.428571
H 12.607626  7.638287 11.108291
H 12.607616  5.931487 10.734271
H 12.607616  7.108797  9.443151
C 12.964286  9.892857 10.428571
H 14.034286  9.892857 10.428571
H 12.607626 10.638287 11.108291
H 12.607616  8.931487 10.734271
H 12.607616 10.108797  9.443151
C  6.964286 12.892857 10.428571
H  8.034286 12.892857 10.428571
H  6.607626 13.638287 11.108291
H  6.607616 11.931487 10.734271
H  6.607616 13.108797  9.443151
C  9.964286 12.892857 10.428571
H 11.034286 12.892857 10.428571
H  9.607626 13.638287 11.108291
H  9.607616 11.931487 10.734271
H  9.607616 13.108797  9.443151
C 12.964286 12.892857 10.428571
H 14.034286 12.892857 10.428571
H 12.607626 13.638287 11.108291
H 12.607616 11.931487 10.734271
H 12.607616 13.108797  9.443151
C  6.964286  6.892857 11.428571
H  8.034286  6.892857 11.428571
H  6.607626  7.638287 12.108291
H  6.607616  5.931487 11.734271
H  6.607616  7.108797 10.443151
C  9.964286  6.892857 11.428571
H 11.034286  6.892857 11.428571
H  9.607626  7.638287 12.108291
H  9.607616  5.931487 11.734271
H  9.607616  7.108797 10.443151
C  6.964286  9.892857 11.428571
H  8.034286  9.892857 11.428571
H  6.607626 10.638287 12.108291
H  6.607616  8.931487 11.734271
H  6.607616 10.108797 10.443151
C  9.964286  9.892857 11.428571
H 11.034286  9.892857 11.428571
H  9.607626 10.638287 12.108291
H  9.607616  8.931487 11.734271
H  9.607616 10.108797 10.443151
C 11.964286  7.892857 12.428571
H 13.034286  7.892857 12.428571
H 11.607626  8.638287 13.108291
H 11.607616  6.931487 12.734271
H 11.607616  8.108797 11.443151
C 11.964286 10.892857 12.428571
H 13.034286 10.892857 12.428571
H 11.607626 11.638287 13.108291
H 11.607616  9.931487 12.734271
H 11.607616 11.108797 11.443151
C  7.964286 11.892857 12.428571
H  9.034286 11.892857 12.428571
H  7.607626 12.638287 13.108291
H  7.607616 10.931487 12.734271
H  7.607616 12.108797 11.443151
C  7.964286  7.892857 13.428571
H  9.034286  7.892857 13.428571
H  7.607626  8.638287 14.108291
H  7.607616  6.931487 13.734271
H  7.607616  8.108797 12.443151
C  9.964286 12.892857 13.428571
H 11.034286 12.892857 13.428571
H  9.607626 13.638287 14.108291
H  9.607616 11.931487 13.734271
H  9.607616 13.108797 12.443151
C 12.964286 12.892857 13.428571
H 14.034286 12.892857 13.428571
H 12.607626 13.638287 14.108291
H 12.607616 11.931487 13.734271
H 12.607616 13.108797 12.443151