113

C      -0.0       0.0       0.0
H      1.07       0.0       0.0
H  -0.35666   0.74543   0.67972
H  -0.35667  -0.96137    0.3057
H  -0.35667   0.21594  -0.98542
H -0.417246 -2.193932 -5.327769
O  0.056637 -1.737291 -4.622171
H -0.391286 -2.068777 -3.834493
H  1.672179 -0.807976 -3.846636
O  2.055274 -0.772123 -4.731456
H  1.520652 -1.419901 -5.206341
H -1.990885  1.044101 -4.365294
O -1.134171  1.384054  -4.65065
H  -0.62684  0.571845  -4.76849
H -3.161262 -1.690833 -3.937389
O -3.505728 -0.795491 -3.834144
H -3.084905 -0.513676   -3.0129
H   0.58586  0.904783 -4.347669
O  0.669761  0.641698 -3.423169
H  0.992483  1.453519 -3.013594
H -1.527773 -3.962352 -3.318947
O -1.554222 -3.872594 -2.358635
H   -0.6699 -4.165054 -2.106851
H  2.427251 -3.621879 -2.584993
O  1.528913 -3.829509 -2.300685
H   1.29194 -4.548612 -2.898755
H  -0.80121   -0.9951 -3.227736
O -1.618415 -1.106844 -2.727092
H  -1.33227 -0.898056 -1.829605
H  2.879281 -1.208181 -1.858346
O  2.419225 -0.765452 -2.581736
H  2.949598 -1.026367 -3.344351
H -3.537567  0.401106 -2.996795
O -2.886088  0.877057 -2.467645
H  -3.32824  1.721837 -2.319993
H  4.372644  2.460525  -2.63999
O  3.885643  1.652857 -2.436383
H  2.989818  1.886617 -2.708059
H  0.652165  2.244413 -2.445692
O  1.053309  3.016764 -2.862237
H   0.54263  3.738823 -2.476503
H -2.587951 -2.759253 -1.919606
O -3.263541 -2.817616  -1.23322
H -3.900404 -3.423131 -1.631606
H  -1.58723  2.689623 -1.477685
O -1.208916  1.838603 -1.225502
H -0.955749  1.471774 -2.081246
H  -3.73156  2.504732 -1.949796
O -2.928124  3.027297 -1.838577
H -3.092211  3.467971  -0.99606
H  2.011787  3.782242 -1.700418
O  2.825903   3.92796 -1.203491
H  3.410415  4.289798 -1.880523
H -0.088836 -4.501161 -1.167156
O -0.625695 -5.132132 -0.672574
H -0.037365 -5.366707  0.055297
H  4.260701 -2.754169 -0.064997
O  3.965901 -3.221668 -0.855876
H  3.021503 -3.024163  -0.86356
H  0.869595 -1.819725 -1.340226
O  0.481213 -2.303691 -0.601382
H  0.897297 -1.876585  0.157175
H -3.985195 -0.449969 -0.020643
O -4.293331  0.367649 -0.429919
H -4.473369  0.082321  -1.33387
H  5.216492 -0.619991 -0.592859
O  4.549779 -0.016865 -0.242593
H  4.481833  0.636856 -0.948981
H -1.739875 -3.447942   0.59743
O -2.161557 -4.314492  0.644644
H -2.850464 -4.237566 -0.026507
H  -1.95421 -1.338467   1.03778
O -2.140075 -0.611088  0.431704
H  -2.65761 -1.050445 -0.253917
H  2.603579  0.653628 -0.274053
O  2.519049  1.333364  0.405482
H  3.125476  1.013008  1.084138
H  1.468222  2.722319    0.3117
O  0.547036  2.883303  0.074097
H  0.232847  3.394378   0.82977
H   1.18341 -2.701597  0.834961
O  0.605398 -2.679629  1.607213
H  0.459296 -3.618774  1.773394
H  3.420422 -0.624843   1.29776
O  2.548176 -0.958962  1.055881
H  2.279506 -1.416195  1.861926
H -3.243602  1.963464   0.62981
O -3.529712  2.279576  1.495355
H -2.978582   1.75696  2.090403
H  0.458691 -0.715727  2.268635
O -0.411485   -0.7536  2.683742
H -0.799102 -1.530673   2.26319
H -0.413406   2.02937  1.646744
O  0.153677  2.015065  2.427235
H -0.492166  1.955565  3.141589
H  1.257421  4.316574   2.91545
O  1.945019  3.711591  2.611875
H  2.045665  3.971835  1.688242
H -1.401169 -2.490786  2.838941
O -1.609512 -3.163106   3.49889
H -0.741215 -3.346108  3.877736
H  2.471482 -2.274853  3.480055
O  1.744523 -1.811795  3.046394
H    1.0321 -1.913352  3.689118
H -3.537879 -1.719612    3.3578
O -3.569595 -0.764017  3.487362
H -2.644421 -0.516372  3.370405
H  1.774778  0.349016  3.827293
O  1.875277  1.293049  3.655084
H  1.598049  1.357935   2.73319
H -1.341969  0.865407   3.64615
O -0.951535  1.272304  4.429062
H -1.458391  0.862288  5.140355