288

H   1.219408  -0.165183   2.160008
C   0.682508  -0.092383   1.208708
C  -0.707492  -0.035183   1.197308
H  -1.264392  -0.062983   2.139308
C  -1.389792   0.057217  -0.011392
H  -2.483592   0.102117  -0.020392
C  -0.682392   0.092517  -1.208792
H  -1.219392   0.165217  -2.159892
C   0.707508   0.035217  -1.197292
H   1.264108   0.062817  -2.139492
C   1.389908  -0.057183   0.011408
H   2.483608  -0.102183   0.020508
H  -1.250632  -5.000000  -9.557567
O  -2.000000  -5.000000 -10.165351
H  -2.749368  -5.000000  -9.557567
H   2.749368  -4.000000  -9.557567
O   2.000000  -4.000000 -10.165351
H   1.250632  -4.000000  -9.557567
H  -4.250632  -1.000000  -9.557567
O  -5.000000  -1.000000 -10.165351
H  -5.749368  -1.000000  -9.557567
H   5.749368  -1.000000  -9.557567
O   5.000000  -1.000000 -10.165351
H   4.250632  -1.000000  -9.557567
H  -0.250632   0.000000  -9.557567
O  -1.000000   0.000000 -10.165351
H  -1.749368   0.000000  -9.557567
H  -3.250632   3.000000  -9.557567
O  -4.000000   3.000000 -10.165351
H  -4.749368   3.000000  -9.557567
H   2.749368   3.000000  -9.557567
O   2.000000   3.000000 -10.165351
H   1.250632   3.000000  -9.557567
H  -0.250632   6.000000  -8.557567
O  -1.000000   6.000000  -9.165351
H  -1.749368   6.000000  -8.557567
H   0.749368  -8.000000  -7.557567
O   0.000000  -8.000000  -8.165351
H  -0.749368  -8.000000  -7.557567
H   7.749368   2.000000  -7.557567
O   7.000000   2.000000  -8.165351
H   6.250632   2.000000  -7.557567
H   4.749368   6.000000  -7.557567
O   4.000000   6.000000  -8.165351
H   3.250632   6.000000  -7.557567
H  -4.250632  -7.000000  -6.557567
O  -5.000000  -7.000000  -7.165351
H  -5.749368  -7.000000  -6.557567
H   4.749368  -7.000000  -6.557567
O   4.000000  -7.000000  -7.165351
H   3.250632  -7.000000  -6.557567
H   7.749368  -4.000000  -6.557567
O   7.000000  -4.000000  -7.165351
H   6.250632  -4.000000  -6.557567
H  -6.250632  -3.000000  -6.557567
O  -7.000000  -3.000000  -7.165351
H  -7.749368  -3.000000  -6.557567
H   2.749368  -1.000000  -6.557567
O   2.000000  -1.000000  -7.165351
H   1.250632  -1.000000  -6.557567
H  -7.250632   1.000000  -6.557567
O  -8.000000   1.000000  -7.165351
H  -8.749368   1.000000  -6.557567
H  -5.250632   5.000000  -6.557567
O  -6.000000   5.000000  -7.165351
H  -6.749368   5.000000  -6.557567
H  -1.250632  -4.000000  -5.557567
O  -2.000000  -4.000000  -6.165351
H  -2.749368  -4.000000  -5.557567
H  -3.250632   0.000000  -5.557567
O  -4.000000   0.000000  -6.165351
H  -4.749368   0.000000  -5.557567
H  -0.250632   3.000000  -5.557567
O  -1.000000   3.000000  -6.165351
H  -1.749368   3.000000  -5.557567
H  -2.250632   8.000000  -5.557567
O  -3.000000   8.000000  -6.165351
H  -3.749368   8.000000  -5.557567
H   1.749368   9.000000  -5.557567
O   1.000000   9.000000  -6.165351
H   0.250632   9.000000  -5.557567
H   9.749368  -1.000000  -4.557567
O   9.000000  -1.000000  -5.165351
H   8.250632  -1.000000  -4.557567
H   4.749368   2.000000  -4.557567
O   4.000000   2.000000  -5.165351
H   3.250632   2.000000  -4.557567
H   7.749368   5.000000  -4.557567
O   7.000000   5.000000  -5.165351
H   6.250632   5.000000  -4.557567
H  -1.250632 -10.000000  -3.557567
O  -2.000000 -10.000000  -4.165351
H  -2.749368 -10.000000  -3.557567
H   2.749368  -9.000000  -3.557567
O   2.000000  -9.000000  -4.165351
H   1.250632  -9.000000  -3.557567
H   7.749368  -7.000000  -3.557567
O   7.000000  -7.000000  -4.165351
H   6.250632  -7.000000  -3.557567
H  -7.250632  -6.000000  -3.557567
O  -8.000000  -6.000000  -4.165351
H  -8.749368  -6.000000  -3.557567
H   2.749368  -4.000000  -3.557567
O   2.000000  -4.000000  -4.165351
H   1.250632  -4.000000  -3.557567
H  -8.250632   4.000000  -3.557567
O  -9.000000   4.000000  -4.165351
H  -9.749368   4.000000  -3.557567
H   3.749368   6.000000  -3.557567
O   3.000000   6.000000  -4.165351
H   2.250632   6.000000  -3.557567
H  -3.250632  -6.000000  -2.557567
O  -4.000000  -6.000000  -3.165351
H  -4.749368  -6.000000  -2.557567
H   6.749368  -3.000000  -2.557567
O   6.000000  -3.000000  -3.165351
H   5.250632  -3.000000  -2.557567
H  -8.250632  -2.000000  -2.557567
O  -9.000000  -2.000000  -3.165351
H  -9.749368  -2.000000  -2.557567
H  -0.250632  -1.000000  -2.557567
O  -1.000000  -1.000000  -3.165351
H  -1.749368  -1.000000  -2.557567
H  -4.250632   3.000000  -2.557567
O  -5.000000   3.000000  -3.165351
H  -5.749368   3.000000  -2.557567
H  -0.250632   6.000000  -2.557567
O  -1.000000   6.000000  -3.165351
H  -1.749368   6.000000  -2.557567
H  -5.250632   7.000000  -2.557567
O  -6.000000   7.000000  -3.165351
H  -6.749368   7.000000  -2.557567
H  -4.250632  -2.000000  -1.557567
O  -5.000000  -2.000000  -2.165351
H  -5.749368  -2.000000  -1.557567
H   7.749368   1.000000  -1.557567
O   7.000000   1.000000  -2.165351
H   6.250632   1.000000  -1.557567
H   6.749368   8.000000  -1.557567
O   6.000000   8.000000  -2.165351
H   5.250632   8.000000  -1.557567
H   5.749368  -9.000000  -0.557567
O   5.000000  -9.000000  -1.165351
H   4.250632  -9.000000  -0.557567
H   0.749368  -7.000000  -0.557567
O   0.000000  -7.000000  -1.165351
H  -0.749368  -7.000000  -0.557567
H   9.749368  -5.000000  -0.557567
O   9.000000  -5.000000  -1.165351
H   8.250632  -5.000000  -0.557567
H   3.749368   3.000000  -0.557567
O   3.000000   3.000000  -1.165351
H   2.250632   3.000000  -0.557567
H   9.749368   5.000000  -0.557567
O   9.000000   5.000000  -1.165351
H   8.250632   5.000000  -0.557567
H  -2.250632   9.000000  -0.557567
O  -3.000000   9.000000  -1.165351
H  -3.749368   9.000000  -0.557567
H   2.749368   9.000000  -0.557567
O   2.000000   9.000000  -1.165351
H   1.250632   9.000000  -0.557567
H  -3.250632 -10.000000   0.442433
O  -4.000000 -10.000000  -0.165351
H  -4.749368 -10.000000   0.442433
H  -6.250632  -7.000000   0.442433
O  -7.000000  -7.000000  -0.165351
H  -7.749368  -7.000000   0.442433
H   4.749368  -5.000000   0.442433
O   4.000000  -5.000000  -0.165351
H   3.250632  -5.000000   0.442433
H  -9.250632   1.000000   0.442433
O -10.000000   1.000000  -0.165351
H -10.749368   1.000000   0.442433
H  -8.250632   5.000000   0.442433
O  -9.000000   5.000000  -0.165351
H  -9.749368   5.000000   0.442433
H  -2.250632  -5.000000   1.442433
O  -3.000000  -5.000000   0.834649
H  -3.749368  -5.000000   1.442433
H  -8.250632  -3.000000   1.442433
O  -9.000000  -3.000000   0.834649
H  -9.749368  -3.000000   1.442433
H   7.749368  -2.000000   1.442433
O   7.000000  -2.000000   0.834649
H   6.250632  -2.000000   1.442433
H  -5.250632   1.000000   1.442433
O  -6.000000   1.000000   0.834649
H  -6.749368   1.000000   1.442433
H  -2.250632   4.000000   1.442433
O  -3.000000   4.000000   0.834649
H  -3.749368   4.000000   1.442433
H   0.749368 -10.000000   2.442433
O   0.000000 -10.000000   1.834649
H  -0.749368 -10.000000   2.442433
H   7.749368  -7.000000   2.442433
O   7.000000  -7.000000   1.834649
H   6.250632  -7.000000   2.442433
H   6.749368   2.000000   2.442433
O   6.000000   2.000000   1.834649
H   5.250632   2.000000   2.442433
H   1.749368   5.000000   2.442433
O   1.000000   5.000000   1.834649
H   0.250632   5.000000   2.442433
H   5.749368   6.000000   2.442433
O   5.000000   6.000000   1.834649
H   4.250632   6.000000   2.442433
H  -5.250632   7.000000   2.442433
O  -6.000000   7.000000   1.834649
H  -6.749368   7.000000   2.442433
H   1.749368  -6.000000   3.442433
O   1.000000  -6.000000   2.834649
H   0.250632  -6.000000   3.442433
H  -1.250632   8.000000   3.442433
O  -2.000000   8.000000   2.834649
H  -2.749368   8.000000   3.442433
H  -3.250632  -9.000000   4.442433
O  -4.000000  -9.000000   3.834649
H  -4.749368  -9.000000   4.442433
H   4.749368  -9.000000   4.442433
O   4.000000  -9.000000   3.834649
H   3.250632  -9.000000   4.442433
H  -6.250632  -6.000000   4.442433
O  -7.000000  -6.000000   3.834649
H  -7.749368  -6.000000   4.442433
H   5.749368  -4.000000   4.442433
O   5.000000  -4.000000   3.834649
H   4.250632  -4.000000   4.442433
H  -5.250632  -2.000000   4.442433
O  -6.000000  -2.000000   3.834649
H  -6.749368  -2.000000   4.442433
H   9.749368   0.000000   4.442433
O   9.000000   0.000000   3.834649
H   8.250632   0.000000   4.442433
H  -8.250632   1.000000   4.442433
O  -9.000000   1.000000   3.834649
H  -9.749368   1.000000   4.442433
H  -2.250632   1.000000   4.442433
O  -3.000000   1.000000   3.834649
H  -3.749368   1.000000   4.442433
H   2.749368   9.000000   4.442433
O   2.000000   9.000000   3.834649
H   1.250632   9.000000   4.442433
H  -1.250632  -4.000000   5.442433
O  -2.000000  -4.000000   4.834649
H  -2.749368  -4.000000   5.442433
H   3.749368   0.000000   5.442433
O   3.000000   0.000000   4.834649
H   2.250632   0.000000   5.442433
H  -5.250632   4.000000   5.442433
O  -6.000000   4.000000   4.834649
H  -6.749368   4.000000   5.442433
H   8.749368   4.000000   5.442433
O   8.000000   4.000000   4.834649
H   7.250632   4.000000   5.442433
H   0.749368  -9.000000   6.442433
O   0.000000  -9.000000   5.834649
H  -0.749368  -9.000000   6.442433
H   0.749368   3.000000   6.442433
O   0.000000   3.000000   5.834649
H  -0.749368   3.000000   6.442433
H   4.749368   4.000000   6.442433
O   4.000000   4.000000   5.834649
H   3.250632   4.000000   6.442433
H   3.749368  -6.000000   7.442433
O   3.000000  -6.000000   6.834649
H   2.250632  -6.000000   7.442433
H   7.749368  -2.000000   7.442433
O   7.000000  -2.000000   6.834649
H   6.250632  -2.000000   7.442433
H  -2.250632   6.000000   7.442433
O  -3.000000   6.000000   6.834649
H  -3.749368   6.000000   7.442433
H  -4.250632  -4.000000   8.442433
O  -5.000000  -4.000000   7.834649
H  -5.749368  -4.000000   8.442433
H   0.749368  -2.000000   8.442433
O   0.000000  -2.000000   7.834649
H  -0.749368  -2.000000   8.442433
H  -5.250632   0.000000   8.442433
O  -6.000000   0.000000   7.834649
H  -6.749368   0.000000   8.442433
H   1.749368   7.000000   8.442433
O   1.000000   7.000000   7.834649
H   0.250632   7.000000   8.442433
H   4.749368   0.000000   9.442433
O   4.000000   0.000000   8.834649
H   3.250632   0.000000   9.442433