90

H -5.287840 -4.945739  0.560806
O -6.037208 -4.945739 -0.046978
H -6.786576 -4.945739  0.560806
H -0.524378  4.525630  0.900276
O -1.273747  4.525630  0.292493
H -2.023115  4.525630  0.900276
H  8.366913  1.089397  3.940503
O  7.617544  1.089397  3.332719
H  6.868176  1.089397  3.940503
H  3.687543  1.367335 -2.256943
O  2.938175  1.367335 -2.864726
H  2.188806  1.367335 -2.256943
H -1.425789 -1.684484 -2.129216
O -2.175157 -1.684484 -2.737000
H -2.924525 -1.684484 -2.129216
H  1.335630 -7.551063 -2.116393
O  0.586262 -7.551063 -2.724177
H -0.163106 -7.551063 -2.116393
H -6.691071 -0.951335 -0.217941
O -7.440439 -0.951335 -0.825725
H -8.189808 -0.951335 -0.217941
H  4.417495  6.758118 -6.183288
O  3.668127  6.758118 -6.791072
H  2.918759  6.758118 -6.183288
H  1.666212 -3.480072  2.936778
O  0.916843 -3.480072  2.328994
H  0.167475 -3.480072  2.936778
H  8.458579  4.185093  1.280976
O  7.709211  4.185093  0.673192
H  6.959842  4.185093  1.280976
H -6.506352 -0.681711 -3.366777
O -7.255721 -0.681711 -3.974561
H -8.005089 -0.681711 -3.366777
H  3.884662 -0.890888 -3.054374
O  3.135294 -0.890888 -3.662158
H  2.385926 -0.890888 -3.054374
H  0.227833  4.001157  4.118072
O -0.521535  4.001157  3.510288
H -1.270903  4.001157  4.118072
H  7.601810 -1.960877 -4.036861
O  6.852441 -1.960877 -4.644644
H  6.103073 -1.960877 -4.036861
H -2.491120  2.831890 -0.057591
O -3.240489  2.831890 -0.665374
H -3.989857  2.831890 -0.057591
H -2.261910 -4.530763  7.170469
O -3.011278 -4.530763  6.562685
H -3.760646 -4.530763  7.170469
H -1.861078  8.168851 -2.050591
O -2.610446  8.168851 -2.658375
H -3.359814  8.168851 -2.050591
H  5.258133  7.470638 -3.430624
O  4.508765  7.470638 -4.038408
H  3.759397  7.470638 -3.430624
H -8.234798  1.239715 -2.059964
O -8.984166  1.239715 -2.667748
H -9.733535  1.239715 -2.059964
H  1.280869  1.760249  6.583601
O  0.531501  1.760249  5.975818
H -0.217868  1.760249  6.583601
H -1.425919 -5.250784 -6.017709
O -2.175287 -5.250784 -6.625493
H -2.924655 -5.250784 -6.017709
H  0.877453 -6.959877 -4.787891
O  0.128085 -6.959877 -5.395675
H -0.621283 -6.959877 -4.787891
H  0.900570 -2.123775  0.902697
O  0.151202 -2.123775  0.294913
H -0.598166 -2.123775  0.902697
H -2.506769  9.475288  0.201928
O -3.256137  9.475288 -0.405856
H -4.005505  9.475288  0.201928
H -4.850956  5.498270 -3.669627
O -5.600324  5.498270 -4.277410
H -6.349692  5.498270 -3.669627
H  7.880860  3.306299 -2.291534
O  7.131492  3.306299 -2.899317
H  6.382124  3.306299 -2.291534
H  6.661358  3.048341  0.089239
O  5.911989  3.048341 -0.518545
H  5.162621  3.048341  0.089239
H -4.922371 -1.461499 -1.335904
O -5.671739 -1.461499 -1.943688
H -6.421107 -1.461499 -1.335904
H -0.448511  3.053545 -1.402927
O -1.197880  3.053545 -2.010710
H -1.947248  3.053545 -1.402927
H  2.965622 -4.904621 -5.995208
O  2.216253 -4.904621 -6.602991
H  1.466885 -4.904621 -5.995208