195

H -0.250632 -1.0 -4.557567
O -1.000000 -1.0 -5.165351
H -1.749368 -1.0 -4.557567
H  1.749368  0.0 -4.557567
O  1.000000  0.0 -5.165351
H  0.250632  0.0 -4.557567
H -0.250632 -3.0 -3.557567
O -1.000000 -3.0 -4.165351
H -1.749368 -3.0 -3.557567
H  1.749368 -2.0 -3.557567
O  1.000000 -2.0 -4.165351
H  0.250632 -2.0 -3.557567
H -2.250632 -1.0 -3.557567
O -3.000000 -1.0 -4.165351
H -3.749368 -1.0 -3.557567
H  3.749368 -1.0 -3.557567
O  3.000000 -1.0 -4.165351
H  2.250632 -1.0 -3.557567
H -1.250632  1.0 -3.557567
O -2.000000  1.0 -4.165351
H -2.749368  1.0 -3.557567
H  0.749368  2.0 -3.557567
O  0.000000  2.0 -4.165351
H -0.749368  2.0 -3.557567
H  1.749368 -4.0 -2.557567
O  1.000000 -4.0 -3.165351
H  0.250632 -4.0 -2.557567
H -2.250632 -3.0 -2.557567
O -3.000000 -3.0 -3.165351
H -3.749368 -3.0 -2.557567
H  3.749368 -3.0 -2.557567
O  3.000000 -3.0 -3.165351
H  2.250632 -3.0 -2.557567
H  0.749368  0.0 -2.557567
O  0.000000  0.0 -3.165351
H -0.749368  0.0 -2.557567
H -3.250632  1.0 -2.557567
O -4.000000  1.0 -3.165351
H -4.749368  1.0 -2.557567
H  2.749368  1.0 -2.557567
O  2.000000  1.0 -3.165351
H  1.250632  1.0 -2.557567
H -2.250632  3.0 -2.557567
O -3.000000  3.0 -3.165351
H -3.749368  3.0 -2.557567
H  3.749368  3.0 -2.557567
O  3.000000  3.0 -3.165351
H  2.250632  3.0 -2.557567
H -0.250632  4.0 -2.557567
O -1.000000  4.0 -3.165351
H -1.749368  4.0 -2.557567
H -0.250632 -4.0 -1.557567
O -1.000000 -4.0 -2.165351
H -1.749368 -4.0 -1.557567
H  0.749368 -2.0 -1.557567
O  0.000000 -2.0 -2.165351
H -0.749368 -2.0 -1.557567
H -3.250632 -1.0 -1.557567
O -4.000000 -1.0 -2.165351
H -4.749368 -1.0 -1.557567
H  2.749368 -1.0 -1.557567
O  2.000000 -1.0 -2.165351
H  1.250632 -1.0 -1.557567
H -1.250632  0.0 -1.557567
O -2.000000  0.0 -2.165351
H -2.749368  0.0 -1.557567
H  4.749368  0.0 -1.557567
O  4.000000  0.0 -2.165351
H  3.250632  0.0 -1.557567
H -0.250632  2.0 -1.557567
O -1.000000  2.0 -2.165351
H -1.749368  2.0 -1.557567
H  1.749368  3.0 -1.557567
O  1.000000  3.0 -2.165351
H  0.250632  3.0 -1.557567
H  1.749368 -5.0 -0.557567
O  1.000000 -5.0 -1.165351
H  0.250632 -5.0 -0.557567
H -2.250632 -4.0 -0.557567
O -3.000000 -4.0 -1.165351
H -3.749368 -4.0 -0.557567
H  3.749368 -4.0 -0.557567
O  3.000000 -4.0 -1.165351
H  2.250632 -4.0 -0.557567
H -1.250632 -2.0 -0.557567
O -2.000000 -2.0 -1.165351
H -2.749368 -2.0 -0.557567
H  4.749368 -2.0 -0.557567
O  4.000000 -2.0 -1.165351
H  3.250632 -2.0 -0.557567
H  1.749368  1.0 -0.557567
O  1.000000  1.0 -1.165351
H  0.250632  1.0 -0.557567
H -3.250632  2.0 -0.557567
O -4.000000  2.0 -1.165351
H -4.749368  2.0 -0.557567
H  3.749368  2.0 -0.557567
O  3.000000  2.0 -1.165351
H  2.250632  2.0 -0.557567
H -2.250632  4.0 -0.557567
O -3.000000  4.0 -1.165351
H -3.749368  4.0 -0.557567
H -0.250632 -5.0  0.442433
O -1.000000 -5.0 -0.165351
H -1.749368 -5.0  0.442433
H  0.749368 -3.0  0.442433
O  0.000000 -3.0 -0.165351
H -0.749368 -3.0  0.442433
H -3.250632 -2.0  0.442433
O -4.000000 -2.0 -0.165351
H -4.749368 -2.0  0.442433
H  2.749368 -2.0  0.442433
O  2.000000 -2.0 -0.165351
H  1.250632 -2.0  0.442433
H -2.250632  0.0  0.442433
O -3.000000  0.0 -0.165351
H -3.749368  0.0  0.442433
H  3.749368  0.0  0.442433
O  3.000000  0.0 -0.165351
H  2.250632  0.0  0.442433
H -0.250632  1.0  0.442433
O -1.000000  1.0 -0.165351
H -1.749368  1.0  0.442433
H  0.749368  3.0  0.442433
O  0.000000  3.0 -0.165351
H -0.749368  3.0  0.442433
H  2.749368  4.0  0.442433
O  2.000000  4.0 -0.165351
H  1.250632  4.0  0.442433
H  2.749368 -4.0  1.442433
O  2.000000 -4.0  0.834649
H  1.250632 -4.0  1.442433
H -1.250632 -3.0  1.442433
O -2.000000 -3.0  0.834649
H -2.749368 -3.0  1.442433
H -0.250632 -1.0  1.442433
O -1.000000 -1.0  0.834649
H -1.749368 -1.0  1.442433
H  1.749368  0.0  1.442433
O  1.000000  0.0  0.834649
H  0.250632  0.0  1.442433
H -2.250632  2.0  1.442433
O -3.000000  2.0  0.834649
H -3.749368  2.0  1.442433
H  2.749368  2.0  1.442433
O  2.000000  2.0  0.834649
H  1.250632  2.0  1.442433
H -1.250632  4.0  1.442433
O -2.000000  4.0  0.834649
H -2.749368  4.0  1.442433
H  0.749368 -4.0  2.442433
O  0.000000 -4.0  1.834649
H -0.749368 -4.0  2.442433
H  1.749368 -2.0  2.442433
O  1.000000 -2.0  1.834649
H  0.250632 -2.0  2.442433
H -3.250632 -1.0  2.442433
O -4.000000 -1.0  1.834649
H -4.749368 -1.0  2.442433
H  3.749368 -1.0  2.442433
O  3.000000 -1.0  1.834649
H  2.250632 -1.0  2.442433
H  4.749368  1.0  2.442433
O  4.000000  1.0  1.834649
H  3.250632  1.0  2.442433
H -0.250632  2.0  2.442433
O -1.000000  2.0  1.834649
H -1.749368  2.0  2.442433
H  0.749368  4.0  2.442433
O  0.000000  4.0  1.834649
H -0.749368  4.0  2.442433
H -1.250632 -2.0  3.442433
O -2.000000 -2.0  2.834649
H -2.749368 -2.0  3.442433
H -0.250632  0.0  3.442433
O -1.000000  0.0  2.834649
H -1.749368  0.0  3.442433
H -2.250632  1.0  3.442433
O -3.000000  1.0  2.834649
H -3.749368  1.0  3.442433
H  1.749368  1.0  3.442433
O  1.000000  1.0  2.834649
H  0.250632  1.0  3.442433
H  2.749368  3.0  3.442433
O  2.000000  3.0  2.834649
H  1.250632  3.0  3.442433
H  0.749368 -3.0  4.442433
O  0.000000 -3.0  3.834649
H -0.749368 -3.0  4.442433
H  1.749368 -1.0  4.442433
O  1.000000 -1.0  3.834649
H  0.250632 -1.0  4.442433
H  0.749368  3.0  4.442433
O  0.000000  3.0  3.834649
H -0.749368  3.0  4.442433